Circuit: * C:\sandbox\PySpice\tests\AC - STEP.asc

.OP point found by inspection.
.step r1=1000
.step r1=10000

Date: Sat Feb 25 16:22:00 2023
Total elapsed time: 0.008 seconds.

tnom = 27
temp = 27
method = trap
totiter = 0
traniter = 0
tranpoints = 0
accept = 0
rejected = 0
matrix size = 3
fillins = 0
solver = Normal
Avg thread counts: 8.0/0.0/0.0/6.2
Matrix Compiler1:       4 opcodes
Matrix Compiler2:      15 opcodes
