Circuit: * C:\Python\projects\PyLTSpice\tests\AC - STEP.asc

.step r1=1000
.step r1=10000

Date: Mon Dec 03 04:26:42 2018
Total elapsed time: 0.041 seconds.

tnom = 27
temp = 27
method = trap
totiter = 0
traniter = 0
tranpoints = 0
accept = 0
rejected = 0
matrix size = 3
fillins = 0
solver = Normal

