Circuit: * C:\sandbox\PyLTSpice_GitHub_nunobrum\tests\AC - STEP.asc

.step r1=1000
.step r1=10000

Date: Sun Oct 09 21:56:18 2022
Total elapsed time: 0.003 seconds.

tnom = 27
temp = 27
method = trap
totiter = 0
traniter = 0
tranpoints = 0
accept = 0
rejected = 0
matrix size = 3
fillins = 0
solver = Normal

