Circuit: * C:\sandbox\PyLTSpice_GitHub_nunobrum\tests\AC.asc


Date: Sat Dec 14 23:47:20 2019
Total elapsed time: 0.038 seconds.

tnom = 27
temp = 27
method = trap
totiter = 0
traniter = 0
tranpoints = 0
accept = 0
rejected = 0
matrix size = 3
fillins = 0
solver = Normal

