Circuit: * C:\Python\projects\ltsipy\tests\simulations\AC.asc


Date: Mon Nov 26 03:01:09 2018
Total elapsed time: 0.030 seconds.

tnom = 27
temp = 27
method = trap
totiter = 0
traniter = 0
tranpoints = 0
accept = 0
rejected = 0
matrix size = 3
fillins = 0
solver = Normal

