Circuit: * C:\sandbox\PySpice\tests\Batch_Test.asc

Direct Newton iteration failed to find .op point.  (Use ".option noopiter" to skip.)
Starting Gmin stepping
Gmin = 10
Gmin = 1.07374
Gmin = 0.115292
Gmin = 0.0123794
Gmin = 0.00132923
Gmin = 0.000142725
Gmin = 1.5325e-005
Gmin = 1.6455e-006
Gmin = 1.76685e-007
Gmin = 1.89714e-008
Gmin = 2.03704e-009
Gmin = 2.18725e-010
Gmin = 2.34854e-011
Gmin = 2.52173e-012
Gmin = 2.70769e-013
Gmin = 0
Gmin stepping succeeded in finding the operating point.


vout_rms: RMS(v(out))=1.06048 FROM 0 TO 0.001
vin_rms: RMS(v(in))=0.707048 FROM 0 TO 0.001
gain: vout_rms/vin_rms=1.49987
vout1m: v(out)=-0.0013187 at 0.001
period: time=9.87226e-009 at 9.87226e-009


Date: Wed Dec 28 20:32:28 2022
Total elapsed time: 0.146 seconds.

tnom = 27
temp = 27
method = modified trap
totiter = 2460
traniter = 2092
tranpoints = 1047
accept = 1046
rejected = 1
matrix size = 11
fillins = 2
solver = Normal
Matrix Compiler1: 602 bytes object code size  0.3/0.1/[0.1]
Matrix Compiler2: 1.08 KB object code size  0.2/0.3/[0.1]

