Circuit: * C:\sandbox\PyLTSpice_GitHub_nunobrum\tests\Batch_Test.asc

Direct Newton iteration for .op point succeeded.

vout_rms: RMS(v(out))=1.41109 FROM 0 TO 0.001
vin_rms: RMS(v(in))=0.706221 FROM 0 TO 0.001
gain: vout_rms/vin_rms=1.99809
vout1m: v(out)=-0.0186257 at 0.001
period: time=0.000100148 at 0.000100148


Date: Sun Oct 09 21:56:25 2022
Total elapsed time: 0.084 seconds.

tnom = 27
temp = 27
method = modified trap
totiter = 2407
traniter = 2403
tranpoints = 1064
accept = 1063
rejected = 1
matrix size = 14
fillins = 7
solver = Normal
Matrix Compiler1: 934 bytes object code size  0.9/0.2/[0.1]
Matrix Compiler2: 1.60 KB object code size  0.3/0.4/[0.2]

