Circuit: * C:\sandbox\PySpice\tests\Batch_Test.asc

No AC stimulus found:
     Set the value of a current or voltage source to "AC 1."
     to make it behave as a signal generator for AC analysis.
Direct Newton iteration failed to find .op point.  (Use ".option noopiter" to skip.)
Starting Gmin stepping
Gmin = 10
Gmin = 1.07374
Gmin = 0.115292
Gmin = 0.0123794
Gmin = 0.00132923
Gmin = 0.000142725
Gmin = 1.5325e-05
Gmin = 1.6455e-06
Gmin = 1.76685e-07
vernier = 0.5
vernier = 0.25
Gmin = 6.41063e-08
vernier = 0.125
vernier = 0.0625
vernier = 0.0833333
Gmin = 6.04858e-08
vernier = 0.111111
Gmin = 4.7254e-08
vernier = 0.148148
vernier = 0.197531
Gmin = 3.13284e-08
vernier = 0.263374
vernier = 0.351165
Gmin = 1.6399e-08
vernier = 0.46822
Gmin = 6.0282e-09
vernier = 0.624294
vernier = 0.832392
Gmin = 1.18541e-09
vernier = 1
Gmin = 1.36264e-10
Gmin = 1.46313e-11
Gmin = 1.57102e-12
Gmin = 1.68687e-13
Gmin = 0
Gmin stepping succeeded in finding the operating point.


Multiply defined .measure result:  gain   

  Each .measure statement needs a unique result name.

Date: Sun Apr 30 20:47:19 2023
Total elapsed time: 0.079 seconds.

tnom = 27
temp = 27
method = trap
totiter = 1029
traniter = 0
tranpoints = 0
accept = 0
rejected = 0
matrix size = 20
fillins = 17
solver = Normal
Avg thread counts: 2.4/0.0/4.4/1.6
Matrix Compiler1:      82 opcodes
Matrix Compiler2: off  [0.2]/0.4/0.7

