Circuit: * C:\sandbox\PyLTSpice_GitHub_nunobrum\tests\DC op point - STEP.asc

Direct Newton iteration for .op point succeeded.

Date: Mon Sep 26 18:55:59 2022
Total elapsed time: 0.016 seconds.

tnom = 27
temp = 27
method = trap
totiter = 3
traniter = 0
tranpoints = 0
accept = 0
rejected = 0
matrix size = 7
fillins = 0
solver = Normal
Matrix Compiler1: 250 bytes object code size
Matrix Compiler2: 467 bytes object code size
