Circuit: * C:\sandbox\PyLTSpice_GitHub_nunobrum\tests\DC op point.asc

Direct Newton iteration for .op point succeeded.

Date: Sat Dec 14 23:46:50 2019
Total elapsed time: 0.134 seconds.

tnom = 27
temp = 27
method = trap
totiter = 3
traniter = 0
tranpoints = 0
accept = 0
rejected = 0
matrix size = 3
fillins = 0
solver = Normal
Matrix Compiler1: 50 bytes object code size
Matrix Compiler2: 175 bytes object code size
