Circuit: * C:\sandbox\PySpice\tests\DC op point - STEP.asc

Direct Newton iteration for .op point succeeded.

Date: Sat Feb 25 16:22:09 2023
Total elapsed time: 0.013 seconds.

tnom = 27
temp = 27
method = trap
totiter = 3
traniter = 0
tranpoints = 0
accept = 0
rejected = 0
matrix size = 7
fillins = 0
solver = Normal
Avg thread counts: 8.0/0.0/8.0/8.0
Matrix Compiler1: 268 bytes object code size
Matrix Compiler2: 467 bytes object code size
