Circuit: * C:\sandbox\PyLTSpice_GitHub_nunobrum\tests\DC sweep.asc

.step temp=0°C
.step temp=25°C
.step temp=50°C
.step temp=75°C
.step temp=100°C
.step temp=125°C

Date: Sun Jun 19 20:24:58 2022
Total elapsed time: 0.208 seconds.

tnom = 27
temp = 125
method = trap
totiter = 20
traniter = 0
tranpoints = 0
accept = 0
rejected = 0
matrix size = 3
fillins = 0
solver = Normal
Matrix Compiler1: 50 bytes object code size
Matrix Compiler2: 175 bytes object code size
