Circuit: * C:\sandbox\PyLTSpice_GitHub_nunobrum\tests\DC sweep.asc


Date: Sat Dec 14 23:46:43 2019
Total elapsed time: 0.228 seconds.

tnom = 27
temp = 27
method = trap
totiter = 5
traniter = 0
tranpoints = 0
accept = 0
rejected = 0
matrix size = 3
fillins = 0
solver = Normal
Matrix Compiler1: 50 bytes object code size
Matrix Compiler2: 175 bytes object code size
