Circuit: * C:\Python\projects\ltsipy\tests\simulations\DC sweep.asc


Date: Mon Nov 26 02:51:29 2018
Total elapsed time: 0.020 seconds.

tnom = 27
temp = 27
method = trap
totiter = 5
traniter = 0
tranpoints = 0
accept = 0
rejected = 0
matrix size = 3
fillins = 0
solver = Normal
Matrix Compiler1: 50 bytes object code size
Matrix Compiler2: 175 bytes object code size
