Circuit: * C:\sandbox\PyLTSpice_GitHub_nunobrum\tests\TRAN.asc

.OP point found by inspection.

Date: Fri Nov 12 18:06:07 2021
Total elapsed time: 0.053 seconds.

tnom = 27
temp = 27
method = modified trap
totiter = 2162
traniter = 2162
tranpoints = 1082
accept = 1081
rejected = 1
matrix size = 3
fillins = 0
solver = Normal
Matrix Compiler1: off  [0.0]/0.0/0.0
Matrix Compiler2: 175 bytes object code size  0.0/0.0/[0.0]

