Circuit: * C:\sandbox\PySpice\tests\TRAN.asc

.OP point found by inspection.

t1: v(out)=0.63174 at 0.001
t2: v(out)=0.864813 at 0.002
t3: v(out)=0.950225 at 0.003
t4: v(out)=0.981665 at 0.004
t5: v(out)=0.993262 at 0.005


Date: Thu Feb 23 23:18:36 2023
Total elapsed time: 0.014 seconds.

tnom = 27
temp = 27
method = modified trap
totiter = 2162
traniter = 2162
tranpoints = 1082
accept = 1081
rejected = 1
matrix size = 3
fillins = 0
solver = Normal
Avg thread counts: 1.3/1.6/1.6/1.3
Matrix Compiler1: off  [0.0]/0.1/0.1
Matrix Compiler2: off  [0.0]/0.1/0.1

