Circuit: * C:\sandbox\PyLTSpice_GitHub_nunobrum\tests\TRAN.asc

.OP point found by inspection.

Date: Sat Dec 14 23:46:31 2019
Total elapsed time: 0.211 seconds.

tnom = 27
temp = 27
method = modified trap
totiter = 2162
traniter = 2162
tranpoints = 1082
accept = 1081
rejected = 1
matrix size = 3
fillins = 0
solver = Normal
Matrix Compiler1:       3 opcodes  0.1/[0.0]/0.0
Matrix Compiler2: 175 bytes object code size  0.1/0.1/[0.1]

