Circuit: * C:\Python\projects\ltsipy\tests\simulations\TRAN - STEP.asc

.OP point found by inspection.
.step vin=1 r1=1000
.step vin=10 r1=1000
.step vin=1 r1=10000
.step vin=10 r1=10000

Date: Mon Nov 26 04:58:06 2018
Total elapsed time: 0.140 seconds.

tnom = 27
temp = 27
method = modified trap
totiter = 2162
traniter = 2162
tranpoints = 1082
accept = 1081
rejected = 1
matrix size = 3
fillins = 0
solver = Normal
Matrix Compiler1: off  [0.0]/0.0/0.0
Matrix Compiler2: 175 bytes object code size  0.0/0.1/[0.0]

