Circuit: * C:\sandbox\PyLTSpice\examples\testfiles\AC - STEP.asc

.OP point found by inspection.
.step r1=1000
.step r1=10000

Date: Wed Aug  9 21:49:16 2023
Total elapsed time: 0.042 seconds.

tnom = 27
temp = 27
method = trap
totiter = 0
traniter = 0
tranpoints = 0
accept = 0
rejected = 0
matrix size = 3
fillins = 0
solver = Normal
Avg thread counts: 16.0/0.0/0.0/16.0
Matrix Compiler1:       4 opcodes
Matrix Compiler2:      15 opcodes
