LTspice 26.0.1 for Windows
Circuit: C:\sandbox\PyLTSpice\examples\testfiles\AC - STEP_1.net
Start Time: Sun Mar 22 16:18:17 2026

.step r1=1000
solver = Normal
Maximum thread count: 16
tnom = 27
temp = 27
method = modified trap
Compress1stOrder = true
Compress2ndOrder = true
.OP point found by inspection.
.OP point found by inspection.

.step r1=10000
.OP point found by inspection.
.OP point found by inspection.
Total elapsed time: 0.027 seconds.

Files loaded:
C:\sandbox\PyLTSpice\examples\testfiles\AC - STEP_1.net

