LTspice 24.0.11 for Windows
Circuit: * C:\sandbox\PyLTSpice\examples\testfiles\AC - STEP.asc
Start Time: Mon May 20 13:20:59 2024
solver = Normal
Maximum thread count: 16



.OP point found by inspection.
.step r1=1000
tnom = 27
temp = 27
method = modified trap
.step r1=10000
Total elapsed time: 0.037 seconds.

