LTspice 24.0.11 for Windows
Circuit: * C:\sandbox\PyLTSpice\examples\testfiles\AC.asc
Start Time: Sun Sep 15 18:34:37 2024
solver = Normal
Maximum thread count: 16
tnom = 27
temp = 27
method = modified trap
.OP point found by inspection.
Total elapsed time: 0.023 seconds.

