LTspice 26.0.1 for Windows
Circuit: C:\sandbox\PyLTSpice\examples\testfiles\AC_1.net
Start Time: Sun Mar 22 16:18:14 2026
solver = Normal
Maximum thread count: 16
tnom = 27
temp = 27
method = modified trap
Compress1stOrder = true
Compress2ndOrder = true
.OP point found by inspection.
.OP point found by inspection.
Total elapsed time: 0.031 seconds.

Files loaded:
C:\sandbox\PyLTSpice\examples\testfiles\AC_1.net

