Circuit: * C:\sandbox\PyLTSpice\examples\testfiles\AC.asc

.OP point found by inspection.

Date: Wed Aug  9 23:53:55 2023
Total elapsed time: 0.008 seconds.

tnom = 27
temp = 27
method = trap
totiter = 0
traniter = 0
tranpoints = 0
accept = 0
rejected = 0
matrix size = 3
fillins = 0
solver = Normal
Avg thread counts: 16.0/0.0/0.0/16.0
Matrix Compiler1:       4 opcodes
Matrix Compiler2:      15 opcodes
