LTspice 24.0.9 for Windows
Circuit: * C:\sandbox\PyLTSpice\examples\testfiles\Batch_Test.asc
Start Time: Sun Mar 10 17:30:40 2024
solver = Normal
Maximum thread count: 16
tnom = 27
temp = 27
method = modified trap
Direct Newton iteration failed to find .op point.  (Use ".option noopiter" to skip.)
Starting Gmin stepping
Gmin = 10
Gmin = 1.07374
Gmin = 0.115292
Gmin = 0.0123794
Gmin = 0.00132923
Gmin = 0.000142725
Gmin = 1.5325e-05
Gmin = 1.6455e-06
Gmin = 1.76685e-07
vernier = 0.5
vernier = 0.25
Gmin = 6.41063e-08
vernier = 0.125
vernier = 0.0625
vernier = 0.0833333
Gmin = 6.04858e-08
vernier = 0.111111
Gmin = 4.7254e-08
vernier = 0.148148
vernier = 0.197531
Gmin = 3.13284e-08
vernier = 0.263374
vernier = 0.351165
Gmin = 1.6399e-08
vernier = 0.46822
Gmin = 6.0282e-09
vernier = 0.624294
vernier = 0.832392
Gmin = 1.18541e-09
vernier = 1
Gmin = 1.36264e-10
Gmin = 1.46313e-11
Gmin = 1.57102e-12
Gmin = 1.68687e-13
Gmin = 0
Gmin stepping succeeded in finding the operating point.


vout_rms: RMS(v(out))=1.41109 FROM 0 TO 0.001
vin_rms: RMS(v(in))=0.70622 FROM 0 TO 0.001
gain: vout_rms/vin_rms=1.99808
vout1m: v(out)=-0.0187828 at 0.001
period: time=1.49937e-10 at 1.49937e-10

Total elapsed time: 0.052 seconds.

