LTspice 24.0.11 for Windows
Circuit: * C:\sandbox\PyLTSpice\examples\testfiles\DC op point - STEP.asc
Start Time: Sun Sep 15 18:34:49 2024
solver = Normal
Maximum thread count: 16



Direct Newton iteration for .op point succeeded.
























tnom = 27
temp = 27
method = modified trap
Total elapsed time: 0.011 seconds.

