LTspice 24.0.9 for Windows
Circuit: * C:\sandbox\PyLTSpice\examples\testfiles\DC op point - STEP.asc
Start Time: Sat Mar 16 10:34:45 2024
solver = Normal
Maximum thread count: 16



Direct Newton iteration for .op point succeeded.
























tnom = 27
temp = 27
method = modified trap
Total elapsed time: 0.012 seconds.

