Circuit: * C:\sandbox\PyLTSpice\examples\testfiles\DC op point - STEP.asc

Direct Newton iteration for .op point succeeded.

Date: Wed Aug  9 23:54:09 2023
Total elapsed time: 0.115 seconds.

tnom = 27
temp = 27
method = trap
totiter = 3
traniter = 0
tranpoints = 0
accept = 0
rejected = 0
matrix size = 7
fillins = 0
solver = Normal
Avg thread counts: 16.0/0.0/16.0/16.0
Matrix Compiler1: 268 bytes object code size
Matrix Compiler2: 467 bytes object code size
