LTspice 24.0.11 for Windows
Circuit: * C:\sandbox\PyLTSpice\examples\testfiles\DC op point.asc
Start Time: Sun Sep 15 18:34:47 2024
solver = Normal
Maximum thread count: 16
tnom = 27
temp = 27
method = modified trap
Direct Newton iteration for .op point succeeded.
Total elapsed time: 0.004 seconds.

