Circuit: * C:\sandbox\PyLTSpice\examples\testfiles\DC op point.asc

Direct Newton iteration for .op point succeeded.

Date: Wed Aug  9 23:54:07 2023
Total elapsed time: 0.002 seconds.

tnom = 27
temp = 27
method = trap
totiter = 3
traniter = 0
tranpoints = 0
accept = 0
rejected = 0
matrix size = 3
fillins = 0
solver = Normal
Avg thread counts: 16.0/0.0/16.0/16.0
Matrix Compiler1: 104 bytes object code size
Matrix Compiler2: 163 bytes object code size
