Circuit: * C:\sandbox\PyLTSpice\examples\testfiles\Noise.asc

Direct Newton iteration for .op point succeeded.

Date: Wed Aug  9 23:16:06 2023
Total elapsed time: 0.048 seconds.

tnom = 27
temp = 27
method = trap
totiter = 3
traniter = 0
tranpoints = 0
accept = 0
rejected = 0
matrix size = 3
fillins = 0
solver = Normal
Avg thread counts: 16.0/0.0/16.0/13.2
Matrix Compiler1:       3 opcodes
Matrix Compiler2: 175 bytes object code size
