Circuit: * C:\sandbox\PyLTSpice\examples\testfiles\testfile.asc

WARNING: Specified period is not longer than the sum of Trise, Tfall, and Ton for v1.  Increasing period to 0.002
Direct Newton iteration for .op point succeeded.
.step cap=1e-12
.step cap=1e-11
.step cap=1e-10
.step cap=1e-09
.step cap=1e-08
.step cap=1e-07
.step cap=1e-06
.step cap=1e-05

Date: Wed Aug  9 23:28:30 2023
Total elapsed time: 0.645 seconds.

tnom = 27
temp = 27
method = modified trap
totiter = 23021
traniter = 23018
tranpoints = 6033
accept = 4796
rejected = 1237
matrix size = 3
fillins = 0
solver = Normal
Avg thread counts: 1.3/2.0/2.2/1.3
Matrix Compiler1: off  [0.1]/0.1/0.1
Matrix Compiler2: off  [0.0]/0.1/0.1

