LTspice 26.0.1 for Windows
Circuit: C:\sandbox\PyLTSpice\examples\testfiles\TRAN_1.net
Start Time: Sun Mar 22 16:18:46 2026
solver = Normal
Maximum thread count: 16
tnom = 27
temp = 27
method = modified trap
Compress1stOrder = true
Compress2ndOrder = true
.OP point found by inspection.
.OP point found by inspection.
Total elapsed time: 0.032 seconds.

Files loaded:
C:\sandbox\PyLTSpice\examples\testfiles\TRAN_1.net

t1: V(out) =0.631744403632 at 0.001
t2: V(out) =0.864808514393 at 0.002
t3: V(out) =0.950226253432 at 0.003
t4: V(out) =0.981664947303 at 0.004
t5: V(out) =0.993262112141 at 0.005
