LTspice 24.0.11 for Windows
Circuit: * C:\sandbox\PyLTSpice\examples\testfiles\TRAN.asc
Start Time: Sun Sep 15 18:34:58 2024
solver = Normal
Maximum thread count: 16
tnom = 27
temp = 27
method = modified trap
.OP point found by inspection.

t1: v(out)=0.63174 at 0.001
t2: v(out)=0.864813 at 0.002
t3: v(out)=0.950225 at 0.003
t4: v(out)=0.981665 at 0.004
t5: v(out)=0.993262 at 0.005

Total elapsed time: 0.009 seconds.

