LTspice 26.0.1 for Windows
Circuit: C:\sandbox\PyLTSpice\examples\testfiles\TRAN - STEP_1.net
Start Time: Sun Mar 22 16:18:49 2026

.step vin=1 r1=1000
solver = Normal
Maximum thread count: 16
tnom = 27
temp = 27
method = modified trap
Compress1stOrder = true
Compress2ndOrder = true
.OP point found by inspection.
.OP point found by inspection.

.step vin=10 r1=1000
.OP point found by inspection.
.OP point found by inspection.

.step vin=1 r1=10000
.OP point found by inspection.
.OP point found by inspection.

.step vin=10 r1=10000
.OP point found by inspection.
.OP point found by inspection.
Total elapsed time: 0.070 seconds.

Files loaded:
C:\sandbox\PyLTSpice\examples\testfiles\TRAN - STEP_1.net


Measurement: t1
  step	V(out) 	at
     1	0.63185861188	0.001
     2	6.31281441453	0.001
     3	0.0949478956168	0.001
     4	0.949998958592	0.001

Measurement: t2
  step	V(out) 	at
     1	0.864362952281	0.002
     2	8.64555891602	0.002
     3	0.180818364358	0.002
     4	1.81246783017	0.002

Measurement: t3
  step	V(out) 	at
     1	0.950088167151	0.003
     2	9.50133755624	0.003
     3	0.258696798971	0.003
     4	2.58605934071	0.003

Measurement: t4
  step	V(out) 	at
     1	0.981638523577	0.004
     2	9.81641629615	0.004
     3	0.329237307545	0.004
     4	3.28876072129	0.004

Measurement: t5
  step	V(out) 	at
     1	0.993262112141	0.005
     2	9.9326210022	0.005
     3	0.393469035625	0.005
     4	3.93469047546	0.005
